
   --- Expanded Deck Component Count ---
E's 1
V's 2
tot: 3


    --- Expanded Netlist ---
* C:\Users\Jason\Documents\uw\ee538-autumn2020\Lecture\Draft1.asc
v1 vfilt 0 sine(2.5 1 1k)
e1 vwave 0 vfilt n001 1
v2 n001 0 2.5
.tran 10m
.end

WARNING: Less than two connections to node VWAVE.  This node is used by E1.
Direct Newton iteration for .op point succeeded.

Date: Thu Dec 10 20:39:15 2020
Total elapsed time: 0.147 seconds.

tnom = 27
temp = 27
method = modified trap
totiter = 2085
traniter = 2082
tranpoints = 1042
accept = 1042
rejected = 0
matrix size = 6
fillins = 0
solver = Normal
Matrix Compiler1: 110 bytes object code size  0.0/0.0/[0.0]
Matrix Compiler2: 266 bytes object code size  0.0/0.0/[0.0]

